#
#
# *********************
# ECCO controlvariables
# *********************
 &CTRL_NML
 doInitXX=.TRUE.,
 &
#
# *********************
# names for ctrl_pack/unpack
# *********************
 &CTRL_PACKNAMES
 &
# ---
# Generic controls
# ---
 &CTRL_NML_GENARR
 xx_genarr2d_file(1)        = 'xx_depth',
 xx_genarr2d_weight(1)      = 'wt_ones.data',
 xx_genarr2d_preproc(1,1)   = 'noscaling',
 mult_genarr2d(1) = 0.,
 &
